REMARK  11 active torsions:
REMARK  status: ('A' for Active; 'I' for Inactive)
REMARK       I    between atoms: C_1  and  N_7 
REMARK    1  A    between atoms: N_7  and  CA_9 
REMARK    2  A    between atoms: CA_9  and  C_11 
REMARK       I    between atoms: C_11  and  N_17 
REMARK    3  A    between atoms: N_17  and  CA_19 
REMARK    4  A    between atoms: CA_19  and  C_21 
REMARK    5  A    between atoms: CA_19  and  CB_23 
REMARK       I    between atoms: C_21  and  N_36 
REMARK    6  A    between atoms: CB_23  and  CG1_25 
REMARK    7  A    between atoms: N_36  and  CA_38 
REMARK    8  A    between atoms: CA_38  and  C_40 
REMARK    9  A    between atoms: CA_38  and  CB_42 
REMARK   10  A    between atoms: C_40  and  OXT_60 
REMARK   11  A    between atoms: CB_42  and  CG_45 
ROOT
ATOM      1  CA  ILE B   3      45.307  -5.305  -8.691  0.00  0.00     0.180 C 
ENDROOT
BRANCH   1   2
ATOM      2  N   ILE B   3      44.199  -5.426  -9.622  0.00  0.00    -0.346 N 
ATOM      3  C   ALA B   2      43.721  -4.317 -10.441  0.00  0.00     0.240 C 
ATOM      4  O   ALA B   2      44.166  -3.192 -10.357  0.00  0.00    -0.271 OA
ATOM      5  HN  ILE B   3      43.733  -6.329  -9.707  1.00  0.00     0.163 HD
BRANCH   3   6
ATOM      6  CA  ALA B   2      42.567  -4.729 -11.392  0.00  0.00     0.172 C 
ATOM      7  CB  ALA B   2      43.098  -5.544 -12.585  0.00  0.00     0.042 C 
BRANCH   6   8
ATOM      8  N   ALA B   2      41.733  -3.613 -11.861  0.00  0.00    -0.348 N 
ATOM      9  C   ACY B   1      40.581  -3.246 -11.077  0.00  0.00     0.214 C 
ATOM     10  O   ACY B   1      40.408  -3.884 -10.099  0.00  0.00    -0.274 OA
ATOM     11  CH3 ACY B   1      39.619  -2.116 -11.528  0.00  0.00     0.117 C 
ATOM     12  HN  ALA B   2      41.964  -3.112 -12.719  1.00  0.00     0.163 HD
ENDBRANCH   6   8
ENDBRANCH   3   6
ENDBRANCH   1   2
BRANCH   1  13
ATOM     13  C   ILE B   3      46.360  -6.045  -9.513  0.00  0.00     0.241 C 
ATOM     14  O   ILE B   3      46.219  -7.213  -9.759  0.00  0.00    -0.271 OA
ATOM     15  N   0A9 B   4      47.482  -5.258 -10.005  0.00  0.00    -0.345 N 
ATOM     16  HN  0A9 B   4      47.534  -4.267  -9.769  1.00  0.00     0.163 HD
BRANCH  15  17
ATOM     17  CA  0A9 B   4      48.532  -5.846 -10.825  0.00  0.00     0.188 C 
BRANCH  17  18
ATOM     18  C   0A9 B   4      49.648  -6.409  -9.922  0.00  0.00     0.281 C 
ATOM     19  O   0A9 B   4      49.440  -6.542  -8.753  0.00  0.00    -0.263 OA
BRANCH  18  20
ATOM     20  OXT 0A9 B   4      50.879  -6.788 -10.493  0.00  0.00    -0.325 OA
ATOM     21  CM  0A9 B   4      51.755  -7.570  -9.716  0.00  0.00     0.213 C 
ENDBRANCH  18  20
ENDBRANCH  17  18
BRANCH  17  22
ATOM     22  CB  0A9 B   4      49.014  -4.770 -11.820  0.00  0.00     0.074 C 
BRANCH  22  23
ATOM     23  CG  0A9 B   4      47.910  -4.265 -12.770  0.00  0.00    -0.056 A 
ATOM     24  CD1 0A9 B   4      47.351  -3.015 -12.591  0.00  0.00     0.007 A 
ATOM     25  CE1 0A9 B   4      46.360  -2.566 -13.450  0.00  0.00     0.001 A 
ATOM     26  CZ  0A9 B   4      45.904  -3.365 -14.508  0.00  0.00     0.000 A 
ATOM     27  CE2 0A9 B   4      46.461  -4.611 -14.694  0.00  0.00     0.001 A 
ATOM     28  CD2 0A9 B   4      47.458  -5.058 -13.823  0.00  0.00     0.007 A 
ENDBRANCH  22  23
ENDBRANCH  17  22
ENDBRANCH  15  17
ENDBRANCH   1  13
BRANCH   1  29
ATOM     29  CB  ILE B   3      45.079  -5.932  -7.302  0.00  0.00     0.013 C 
ATOM     30  CG2 ILE B   3      46.410  -6.473  -6.738  0.00  0.00     0.012 C 
BRANCH  29  31
ATOM     31  CG1 ILE B   3      44.461  -4.872  -6.361  0.00  0.00     0.002 C 
ATOM     32  CD1 ILE B   3      45.458  -4.069  -5.511  0.00  0.00     0.005 C 
ENDBRANCH  29  31
ENDBRANCH   1  29
TORSDOF 11
