REMARK  7 active torsions:
REMARK  status: ('A' for Active; 'I' for Inactive)
REMARK    1  A    between atoms: N_2  and  C_15 
REMARK       I    between atoms: N_6  and  C_23 
REMARK    2  A    between atoms: N_6  and  C_24 
REMARK    3  A    between atoms: N_7  and  C_25 
REMARK    4  A    between atoms: N_7  and  C_31 
REMARK    5  A    between atoms: C_15  and  C_17 
REMARK    6  A    between atoms: C_22  and  C_23 
REMARK    7  A    between atoms: C_32  and  C_33 
ROOT
ATOM      1  O   UNK d   1      -0.828   0.249  -1.042  0.00  0.00    -0.267 OA
ATOM      2  N   UNK d   1      -0.107  -1.833  -0.233  0.00  0.00    -0.323 N 
ATOM      3  C   UNK d   1       0.083  -0.535  -0.730  0.00  0.00     0.256 C 
ATOM      4  H   UNK d   1       0.715  -2.371   0.029  0.00  0.00     0.169 HD
ENDROOT
BRANCH   3   5
ATOM      5  C   UNK d   1       1.465  -0.119  -0.905  0.00  0.00     0.032 A 
ATOM      6  C   UNK d   1       2.457  -1.071  -1.139  0.00  0.00     0.017 A 
ATOM      7  C   UNK d   1       3.783  -0.672  -1.305  0.00  0.00     0.010 A 
ATOM      8  C   UNK d   1       4.104   0.676  -1.235  0.00  0.00    -0.033 A 
ATOM      9  C   UNK d   1       3.126   1.633  -1.002  0.00  0.00     0.010 A 
ATOM     10  C   UNK d   1       1.800   1.234  -0.836  0.00  0.00     0.017 A 
BRANCH   8  11
ATOM     11  C   UNK d   1       5.535   1.108  -1.415  0.00  0.00     0.273 C 
BRANCH  11  12
ATOM     12  N   UNK d   1       6.458   0.266  -0.655  0.00  0.00    -0.064 N 
ATOM     13  C   UNK d   1       6.155   0.324   0.780  0.00  0.00     0.263 C 
ATOM     14  C   UNK d   1       7.123  -0.558   1.577  0.00  0.00     0.262 C 
ATOM     15  N   UNK d   1       8.515  -0.162   1.331  0.00  0.00    -0.072 N 
ATOM     16  C   UNK d   1       8.818  -0.218  -0.105  0.00  0.00     0.262 C 
ATOM     17  C   UNK d   1       9.436  -1.005   2.089  0.00  0.00     0.269 C 
ATOM     18  HN  UNK d   1       8.633   0.801   1.645  1.00  0.00     0.279 HD
ATOM     19  C   UNK d   1       7.849   0.663  -0.902  0.00  0.00     0.263 C 
ATOM     20  HN  UNK d   1       6.341  -0.698  -0.967  1.00  0.00     0.280 HD
ENDBRANCH  11  12
ENDBRANCH   8  11
ENDBRANCH   3   5
BRANCH   2  21
ATOM     21  C   UNK d   1      -1.324  -2.513   0.015  0.00  0.00     0.037 A 
ATOM     22  C   UNK d   1      -2.523  -1.871  -0.246  0.00  0.00     0.060 A 
ATOM     23  C   UNK d   1      -3.721  -2.541  -0.003  0.00  0.00     0.057 A 
ATOM     24  C   UNK d   1      -3.703  -3.843   0.498  0.00  0.00    -0.035 A 
ATOM     25  C   UNK d   1      -2.487  -4.474   0.756  0.00  0.00     0.011 A 
ATOM     26  C   UNK d   1      -4.972  -4.584   0.769  0.00  0.00     0.050 C 
ATOM     27  C   UNK d   1      -1.288  -3.804   0.512  0.00  0.00     0.030 A 
BRANCH  23  28
ATOM     28  N   UNK d   1      -4.945  -1.888  -0.270  0.00  0.00    -0.188 N 
ATOM     29  H   UNK d   1      -5.733  -2.504  -0.436  0.00  0.00     0.184 HD
BRANCH  28  30
ATOM     30  C   UNK d   1      -5.327  -0.534  -0.241  0.00  0.00     0.727 A 
ATOM     31  N   UNK d   1      -4.375   0.358   0.105  0.00  0.00    -0.062 NA
ATOM     32  C   UNK d   1      -4.775   1.646   0.123  0.00  0.00     0.089 A 
ATOM     33  C   UNK d   1      -6.057   2.055  -0.184  0.00  0.00     0.053 A 
ATOM     34  C   UNK d   1      -6.940   1.049  -0.521  0.00  0.00     0.139 A 
ATOM     35  N   UNK d   1      -6.608  -0.258  -0.560  0.00  0.00    -0.075 NA
BRANCH  32  36
ATOM     36  C   UNK d   1      -3.756   2.599   0.491  0.00  0.00     0.011 A 
ATOM     37  C   UNK d   1      -2.724   2.249   1.356  0.00  0.00     0.017 A 
ATOM     38  C   UNK d   1      -1.757   3.189   1.692  0.00  0.00     0.020 A 
ATOM     39  C   UNK d   1      -1.865   4.456   1.142  0.00  0.00     0.116 A 
ATOM     40  N   UNK d   1      -2.852   4.834   0.299  0.00  0.00    -0.272 NA
ATOM     41  C   UNK d   1      -3.774   3.893  -0.005  0.00  0.00     0.130 A 
ENDBRANCH  32  36
ENDBRANCH  28  30
ENDBRANCH  23  28
ENDBRANCH   2  21
TORSDOF 7
